#EXTM3U
#EXTINF:1794 tvg-logo="https://archive.org/download/LibrivoxCdCoverArt33/Heart_of_the_West_1312.jpg",01 - HEARTS AND CROSSES - Read by Bob Neufeld - Duration 00:29:54
https://www.archive.org/download/heartofthewest_1312_librivox/heartofthewest_01_henry_128kb.mp3
#EXTINF:938 tvg-logo="https://archive.org/download/LibrivoxCdCoverArt33/Heart_of_the_West_1312.jpg",02 - THE RANSOM OF MACK - Read by Bob Neufeld - Duration 00:15:38
https://www.archive.org/download/heartofthewest_1312_librivox/heartofthewest_02_henry_128kb.mp3
#EXTINF:1198 tvg-logo="https://archive.org/download/LibrivoxCdCoverArt33/Heart_of_the_West_1312.jpg",03 - TELEMACHUS- FRIEND - Read by Bob Neufeld - Duration 00:19:58
https://www.archive.org/download/heartofthewest_1312_librivox/heartofthewest_03_henry_128kb.mp3
#EXTINF:1349 tvg-logo="https://archive.org/download/LibrivoxCdCoverArt33/Heart_of_the_West_1312.jpg",04 - THE HANDBOOK OF HYMEN - Read by Ellen Preckel - Duration 00:22:29
https://www.archive.org/download/heartofthewest_1312_librivox/heartofthewest_04_henry_128kb.mp3
#EXTINF:1366 tvg-logo="https://archive.org/download/LibrivoxCdCoverArt33/Heart_of_the_West_1312.jpg",05 - THE PIMIENTA PANCAKES - Read by Steven Bateman - Duration 00:22:46
https://www.archive.org/download/heartofthewest_1312_librivox/heartofthewest_05_henry_128kb.mp3
#EXTINF:2216 tvg-logo="https://archive.org/download/LibrivoxCdCoverArt33/Heart_of_the_West_1312.jpg",06 - SEATS OF THE HAUGHTY - Read by Gabriela Cowan - Duration 00:36:56
https://www.archive.org/download/heartofthewest_1312_librivox/heartofthewest_06_henry_128kb.mp3
#EXTINF:2379 tvg-logo="https://archive.org/download/LibrivoxCdCoverArt33/Heart_of_the_West_1312.jpg",07 - HYGEIA AT THE SOLITO - Read by Gabriela Cowan - Duration 00:39:39
https://www.archive.org/download/heartofthewest_1312_librivox/heartofthewest_07_henry_128kb.mp3
#EXTINF:1694 tvg-logo="https://archive.org/download/LibrivoxCdCoverArt33/Heart_of_the_West_1312.jpg",08 - AN AFTERNOON MIRACLE - Read by Phil Schempf - Duration 00:28:14
https://www.archive.org/download/heartofthewest_1312_librivox/heartofthewest_08_henry_128kb.mp3
#EXTINF:2771 tvg-logo="https://archive.org/download/LibrivoxCdCoverArt33/Heart_of_the_West_1312.jpg",09 - THE HIGHER ABDICATION - Read by Walt Allan - Duration 00:46:11
https://www.archive.org/download/heartofthewest_1312_librivox/heartofthewest_09_henry_128kb.mp3
#EXTINF:2731 tvg-logo="https://archive.org/download/LibrivoxCdCoverArt33/Heart_of_the_West_1312.jpg",10 - CUPID A LA CARTE - Read by Rebecca Braunert-Plunkett - Duration 00:45:31
https://www.archive.org/download/heartofthewest_1312_librivox/heartofthewest_10_henry_128kb.mp3
#EXTINF:1654 tvg-logo="https://archive.org/download/LibrivoxCdCoverArt33/Heart_of_the_West_1312.jpg",11 - THE CABALLERO'S WAY - Read by Lynne Ray - Duration 00:27:34
https://www.archive.org/download/heartofthewest_1312_librivox/heartofthewest_11_henry_128kb.mp3
#EXTINF:2073 tvg-logo="https://archive.org/download/LibrivoxCdCoverArt33/Heart_of_the_West_1312.jpg",12 - THE SPHINX APPLE - Read by nomorejeffs - Duration 00:34:33
https://www.archive.org/download/heartofthewest_1312_librivox/heartofthewest_12_henry_128kb.mp3
#EXTINF:1166 tvg-logo="https://archive.org/download/LibrivoxCdCoverArt33/Heart_of_the_West_1312.jpg",13 - THE MISSING CHORD - Read by Lynne T - Duration 00:19:26
https://www.archive.org/download/heartofthewest_1312_librivox/heartofthewest_13_henry_128kb.mp3
#EXTINF:794 tvg-logo="https://archive.org/download/LibrivoxCdCoverArt33/Heart_of_the_West_1312.jpg",14 - A CALL LOAN - Read by Elliot Gage - Duration 00:13:14
https://www.archive.org/download/heartofthewest_1312_librivox/heartofthewest_14_henry_128kb.mp3
#EXTINF:962 tvg-logo="https://archive.org/download/LibrivoxCdCoverArt33/Heart_of_the_West_1312.jpg",15 - THE PRINCESS AND THE PUMA - Read by Bob Neufeld - Duration 00:16:02
https://www.archive.org/download/heartofthewest_1312_librivox/heartofthewest_15_henry_128kb.mp3
#EXTINF:1131 tvg-logo="https://archive.org/download/LibrivoxCdCoverArt33/Heart_of_the_West_1312.jpg",16 - THE INDIAN SUMMER OF DRY VALLEY JOHNSON - Read by Sam Naishtat - Duration 00:18:51
https://www.archive.org/download/heartofthewest_1312_librivox/heartofthewest_16_henry_128kb.mp3
#EXTINF:1558 tvg-logo="https://archive.org/download/LibrivoxCdCoverArt33/Heart_of_the_West_1312.jpg",17 - CHRISTMAS BY INJUNCTION - Read by Rebecca Braunert-Plunkett - Duration 00:25:58
https://www.archive.org/download/heartofthewest_1312_librivox/heartofthewest_17_henry_128kb.mp3
#EXTINF:1306 tvg-logo="https://archive.org/download/LibrivoxCdCoverArt33/Heart_of_the_West_1312.jpg",18 - A CHAPARRAL PRINCE - Read by imenadel - Duration 00:21:46
https://www.archive.org/download/heartofthewest_1312_librivox/heartofthewest_18_henry_128kb.mp3
#EXTINF:1289 tvg-logo="https://archive.org/download/LibrivoxCdCoverArt33/Heart_of_the_West_1312.jpg",19 - THE REFORMATION OF CALLIOPE - Read by HappyMiamiDad - Duration 00:21:29
https://www.archive.org/download/heartofthewest_1312_librivox/heartofthewest_19_henry_128kb.mp3
